/*--------------------------------*- C++ -*----------------------------------*\
| =========                 |                                                 |
| \\      /  F ield         | OpenFOAM: The Open Source CFD Toolbox           |
|  \\    /   O peration     | Version:  v2406                                 |
|   \\  /    A nd           | Website:  www.openfoam.com                      |
|    \\/     M anipulation  |                                                 |
\*---------------------------------------------------------------------------*/
FoamFile
{
    version     2.0;
    format      ascii;
    class       dictionary;
    object      blockMeshDict;
}
// * * * * * * * * * * * * * * * * * * * * * * * * * * * * * * * * * * * * * //

scale   1.0;

vertices
(

    (0    0    0) // 0
    (0.6  0    0) // 1
    (0.6  0.02  0) // 2
    (0    0.02  0) // 3
    (0    0    0.3) // 4
    (0.6  0    0.3) // 5
    (0.6  0.02  0.3) // 6
    (0    0.02  0.3) // 7

);

blocks
(
    hex (0 1 2 3 4 5 6 7) (60 2 30) simpleGrading (1 1 1)
);

edges
(
);

boundary
(
    backAndFront
    {
        type wall;
        faces
        (
            (5 4 0 1)
            (7 6 2 3)
        );
    }

    walls
    {
        type wall;
        faces
        (
            (3 2 1 0)
            (4 7 3 0)
            (6 5 1 2)
        );
    }

    top
    {
        type patch;
        faces
        (
            (4 5 6 7)
        );
    }

);

mergePatchPairs
(
);


// ************************************************************************* //
